   Input file: /Users/melo.d/Desktop/Research/PHREEQC/test_Oman/Mg_HCO3_WAB105_2018
  Output file: /Users/melo.d/Desktop/Research/PHREEQC/test_Oman/Mg_HCO3_WAB105_2018.out
Database file: /Users/melo.d/Desktop/Research/PHREEQC/phreeqc-3.5.0-14000/database/llnl.dat

------------------
Reading data base.
------------------

	LLNL_AQUEOUS_MODEL_PARAMETERS
	NAMED_EXPRESSIONS
	SOLUTION_MASTER_SPECIES
	SOLUTION_SPECIES
	PHASES
	EXCHANGE_MASTER_SPECIES
	EXCHANGE_SPECIES
	SURFACE_MASTER_SPECIES
	SURFACE_SPECIES
	RATES
	END
------------------------------------
Reading input data for simulation 1.
------------------------------------

	TITLE Samail Mg++ HCO3- example WAB105 2018
	SOLUTION 1  Mg HCO3 water
	        units   umol/L
	        pH      8.66
	        pe      2.65 # corresponds to 160 mV Eh (as measured for well WAB105 in 2018)
	        density 1
	        temp    35
	        Ca              2.58E+02
	        Mg              1.87E+03
	        Na              1.18E+03
	        K               2.87E+01
	        Si              2.83E+02
	        Cl              8.54E+02
	        C(4)            3.32E+03
	        S(6)            2.92E+02
	END
-----
TITLE
-----

 Samail Mg++ HCO3- example WAB105 2018

-------------------------------------------
Beginning of initial solution calculations.
-------------------------------------------

Initial solution 1.	Mg HCO3 water

-----------------------------Solution composition------------------------------

	Elements           Molality       Moles

	C(4)              3.321e-03   3.321e-03
	Ca                2.581e-04   2.581e-04
	Cl                8.543e-04   8.543e-04
	K                 2.871e-05   2.871e-05
	Mg                1.871e-03   1.871e-03
	Na                1.180e-03   1.180e-03
	S(6)              2.921e-04   2.921e-04
	Si                2.831e-04   2.831e-04

----------------------------Description of solution----------------------------

                                       pH  =   8.660    
                                       pe  =   2.650    
                        Activity of water  =   1.000
                 Ionic strength (mol/kgw)  =   6.986e-03
                       Mass of water (kg)  =   1.000e+00
                 Total alkalinity (eq/kg)  =   3.563e-03
                       Total CO2 (mol/kg)  =   3.321e-03
                         Temperature (°C)  =  35.00
                  Electrical balance (eq)  =   4.647e-04
 Percent error, 100*(Cat-|An|)/(Cat+|An|)  =   4.85
                               Iterations  =   3
                                  Total H  = 1.110538e+02
                                  Total O  = 5.553704e+01

----------------------------Distribution of species----------------------------

                                               Log       Log       Log    mole V
   Species          Molality    Activity  Molality  Activity     Gamma   cm³/mol

   OH-             9.883e-06   9.025e-06    -5.005    -5.045    -0.039     (0)  
   H+              2.369e-09   2.188e-09    -8.625    -8.660    -0.035      0.00
   H2O             5.553e+01   9.999e-01     1.744    -0.000     0.000     18.12
C(4)          3.321e-03
   HCO3-           3.032e-03   2.772e-03    -2.518    -2.557    -0.039     (0)  
   MgCO3           9.728e-05   9.728e-05    -4.012    -4.012     0.000     (0)  
   CO3-2           9.580e-05   6.708e-05    -4.019    -4.173    -0.155     (0)  
   MgHCO3+         4.416e-05   4.037e-05    -4.355    -4.394    -0.039     (0)  
   CaCO3           3.012e-05   3.012e-05    -4.521    -4.521     0.000     (0)  
   CO2             1.264e-05   1.266e-05    -4.898    -4.898     0.001     (0)  
   CaHCO3+         5.772e-06   5.277e-06    -5.239    -5.278    -0.039     (0)  
   NaHCO3          3.543e-06   3.543e-06    -5.451    -5.451     0.000     (0)  
   NaCO3-          2.066e-07   1.889e-07    -6.685    -6.724    -0.039     (0)  
Ca            2.581e-04
   Ca+2            2.183e-04   1.548e-04    -3.661    -3.810    -0.149     (0)  
   CaCO3           3.012e-05   3.012e-05    -4.521    -4.521     0.000     (0)  
   CaHCO3+         5.772e-06   5.277e-06    -5.239    -5.278    -0.039     (0)  
   CaSO4           3.822e-06   3.822e-06    -5.418    -5.418     0.000     (0)  
   CaCl+           2.915e-08   2.665e-08    -7.535    -7.574    -0.039     (0)  
   CaOH+           1.093e-08   9.996e-09    -7.961    -8.000    -0.039     (0)  
   CaCl2           2.228e-11   2.228e-11   -10.652   -10.652     0.000     (0)  
Cl(-1)        8.543e-04
   Cl-             8.533e-04   7.783e-04    -3.069    -3.109    -0.040     (0)  
   MgCl+           8.056e-07   7.365e-07    -6.094    -6.133    -0.039     (0)  
   NaCl            1.583e-07   1.583e-07    -6.801    -6.801     0.000     (0)  
   CaCl+           2.915e-08   2.665e-08    -7.535    -7.574    -0.039     (0)  
   KCl             8.283e-10   8.283e-10    -9.082    -9.082     0.000     (0)  
   CaCl2           2.228e-11   2.228e-11   -10.652   -10.652     0.000     (0)  
   HCl             3.832e-13   3.832e-13   -12.417   -12.417     0.000     (0)  
Cl(1)         1.622e-37
   ClO-            1.510e-37   1.381e-37   -36.821   -36.860    -0.039     (0)  
   HClO            1.120e-38   1.120e-38   -37.951   -37.951     0.000     (0)  
Cl(3)         0.000e+00
   ClO2-           0.000e+00   0.000e+00   -63.568   -63.607    -0.039     (0)  
   HClO2           0.000e+00   0.000e+00   -69.097   -69.097     0.000     (0)  
Cl(5)         0.000e+00
   ClO3-           0.000e+00   0.000e+00   -76.908   -76.948    -0.039     (0)  
Cl(7)         0.000e+00
   ClO4-           0.000e+00   0.000e+00   -94.482   -94.521    -0.039     (0)  
H(0)          6.073e-26
   H2              3.036e-26   3.042e-26   -25.518   -25.517     0.001     (0)  
K             2.871e-05
   K+              2.867e-05   2.615e-05    -4.543    -4.583    -0.040     (0)  
   KSO4-           3.766e-08   3.443e-08    -7.424    -7.463    -0.039     (0)  
   KCl             8.283e-10   8.283e-10    -9.082    -9.082     0.000     (0)  
   KOH             4.144e-11   4.144e-11   -10.383   -10.383     0.000     (0)  
   KHSO4           9.576e-17   9.576e-17   -16.019   -16.019     0.000     (0)  
Mg            1.871e-03
   Mg+2            1.664e-03   1.198e-03    -2.779    -2.921    -0.142     (0)  
   MgCO3           9.728e-05   9.728e-05    -4.012    -4.012     0.000     (0)  
   MgSO4           6.460e-05   6.460e-05    -4.190    -4.190     0.000     (0)  
   MgHCO3+         4.416e-05   4.037e-05    -4.355    -4.394    -0.039     (0)  
   MgCl+           8.056e-07   7.365e-07    -6.094    -6.133    -0.039     (0)  
   Mg4(OH)4+4      6.446e-17   1.600e-17   -16.191   -16.796    -0.605     (0)  
Na            1.180e-03
   Na+             1.175e-03   1.074e-03    -2.930    -2.969    -0.039     (0)  
   NaHCO3          3.543e-06   3.543e-06    -5.451    -5.451     0.000     (0)  
   NaSO4-          1.203e-06   1.100e-06    -5.920    -5.959    -0.039     (0)  
   NaHSiO3         8.025e-07   8.025e-07    -6.096    -6.096     0.000     (0)  
   NaCO3-          2.066e-07   1.889e-07    -6.685    -6.724    -0.039     (0)  
   NaCl            1.583e-07   1.583e-07    -6.801    -6.801     0.000     (0)  
   NaOH            1.651e-09   1.651e-09    -8.782    -8.782     0.000     (0)  
O(0)          1.922e-38
   O2              9.610e-39   9.626e-39   -38.017   -38.017     0.001     (0)  
S(6)          2.921e-04
   SO4-2           2.224e-04   1.551e-04    -3.653    -3.809    -0.157     (0)  
   MgSO4           6.460e-05   6.460e-05    -4.190    -4.190     0.000     (0)  
   CaSO4           3.822e-06   3.822e-06    -5.418    -5.418     0.000     (0)  
   NaSO4-          1.203e-06   1.100e-06    -5.920    -5.959    -0.039     (0)  
   KSO4-           3.766e-08   3.443e-08    -7.424    -7.463    -0.039     (0)  
   HSO4-           4.985e-11   4.557e-11   -10.302   -10.341    -0.039     (0)  
   KHSO4           9.576e-17   9.576e-17   -16.019   -16.019     0.000     (0)  
   H2SO4           7.073e-23   7.073e-23   -22.150   -22.150     0.000     (0)  
Si            2.831e-04
   SiO2            2.615e-04   2.615e-04    -3.583    -3.583     0.000     (0)  
   HSiO3-          2.082e-05   1.904e-05    -4.681    -4.720    -0.039     (0)  
   NaHSiO3         8.025e-07   8.025e-07    -6.096    -6.096     0.000     (0)  
   H2SiO4-2        8.590e-10   5.988e-10    -9.066    -9.223    -0.157     (0)  
   H6(H2SiO4)4-2   3.206e-11   2.235e-11   -10.494   -10.651    -0.157     (0)  
   H4(H2SiO4)4-4   9.929e-16   2.340e-16   -15.003   -15.631    -0.628     (0)  

------------------------------Saturation indices-------------------------------

  Phase               SI** log IAP   log K(308 K,   1 atm)

  Afwillite       -24.80     33.36   58.16  Ca3Si2O4(OH)6
  Akermanite       -9.33     34.25   43.59  Ca2MgSi2O7
  Anhydrite        -3.15     -7.62   -4.47  CaSO4
  Antarcticite    -14.12    -10.03    4.09  CaCl2:6H2O
  Anthophyllite     8.41     72.13   63.72  Mg7Si8O22(OH)2
  Antigorite      112.81    569.32  456.51  Mg48Si34O85(OH)62
  Aphthitalite    -20.45    -24.34   -3.89  NaK3(SO4)2
  Aragonite         0.47      2.29    1.82  CaCO3
  Arcanite        -11.26    -12.97   -1.72  K2SO4
  Artinite         -1.31     17.58   18.89  Mg2CO3(OH)2:3H2O
  Bassanite        -3.80     -7.62   -3.82  CaSO4:0.5H2O
  Bischofite      -13.53     -9.14    4.39  MgCl2:6H2O
  Bloedite        -14.00    -16.48   -2.48  Na2Mg(SO4)2:4H2O
  Brucite          -1.25     14.40   15.65  Mg(OH)2
  Burkeite        -28.82    -19.33    9.49  Na6CO3(SO4)2
  C               -35.11     26.80   61.91  C
  C(g)           -148.66     26.80  175.46  C
  Ca             -102.63     32.52  135.15  Ca
  Ca(g)          -126.86     32.52  159.38  Ca
  Ca2Cl2(OH)2:H2O -22.81      3.48   26.29  Ca2Cl2(OH)2:H2O
  Ca4Cl2(OH)6:13H2O -37.83     30.50   68.33  Ca4Cl2(OH)6:13H2O
  Calcite           0.62      2.29    1.67  CaCO3
  Carnallite      -21.10    -16.83    4.27  KMgCl3:6H2O
  CaSO4:0.5H2O(beta)  -3.95     -7.62   -3.66  CaSO4:0.5H2O
  Chalcedony       -0.00     -3.58   -3.58  SiO2
  Chloromagnesite -30.04     -9.14   20.90  MgCl2
  Chrysotile        6.24     36.03   29.79  Mg3Si2O5(OH)4
  Cl2(g)          -45.23    -42.55    2.68  Cl2
  CO2(g)           -3.32    -11.22   -7.89  CO2
  Coesite          -0.52     -3.58   -3.06  SiO2
  Cristobalite(alpha)  -0.27     -3.58   -3.31  SiO2
  Cristobalite(beta)  -0.69     -3.58   -2.90  SiO2
  Dicalcium_silicate -12.45     23.44   35.89  Ca2SiO4
  Diopside          0.62     20.74   20.12  CaMgSi2O6
  Dolomite          3.35      5.47    2.12  CaMg(CO3)2
  Dolomite-dis      1.88      5.47    3.59  CaMg(CO3)2
  Dolomite-ord      3.36      5.47    2.12  CaMg(CO3)2
  Enstatite         0.00     10.82   10.82  MgSiO3
  Epsomite         -4.77     -6.73   -1.96  MgSO4:7H2O
  Forsterite       -1.42     25.21   26.64  Mg2SiO4
  Foshagite       -20.46     43.29   63.75  Ca4Si3O9(OH)2:0.5H2O
  Gaylussite       -8.71      2.46   11.16  CaNa2(CO3)2:5H2O
  Glauberite      -11.90    -17.37   -5.47  Na2Ca(SO4)2
  Gypsum           -3.07     -7.62   -4.55  CaSO4:2H2O
  Gyrolite         -6.05     16.27   22.33  Ca2Si3O7(OH)2:1.5H2O
  H2(g)           -22.40    -25.52   -3.12  H2
  H2O(g)           -1.34     -0.00    1.34  H2O
  Halite           -7.66     -6.08    1.58  NaCl
  Hatrurite       -33.93     36.95   70.88  Ca3SiO5
  HCl(g)          -17.64    -11.77    5.87  HCl
  Hexahydrite      -5.00     -6.73   -1.73  MgSO4:6H2O
  Hillebrandite   -12.18     23.44   35.62  Ca2SiO3(OH)2:0.17H2O
  Huntite           2.61     11.84    9.23  CaMg3(CO3)4
  Hydromagnesite   -1.90     27.12   29.02  Mg5(CO3)4(OH)2:4H2O
  Hydrophilite    -21.30    -10.03   11.27  CaCl2
  Ice              -0.18     -0.00    0.18  H2O
  K               -55.17     13.58   68.75  K
  K(g)            -65.26     13.58   78.84  K
  K2CO3:1.5H2O    -16.44     -3.06   13.38  K2CO3:1.5H2O
  K2O             -73.46      8.15   81.61  K2O
  K3H(SO4)2       -26.40    -30.03   -3.62  K3H(SO4)2
  K8H4(CO3)6:3H2O -62.39    -34.68   27.71  K8H4(CO3)6:3H2O
  Kainite         -14.11    -14.42   -0.31  KMgClSO4:3H2O
  Kalicinite       -7.42     -7.14    0.28  KHCO3
  Kieserite        -6.46     -6.73   -0.27  MgSO4:H2O
  KMgCl3          -37.32    -16.83   20.49  KMgCl3
  KMgCl3:2H2O     -30.35    -16.83   13.52  KMgCl3:2H2O
  KNaCO3:6H2O     -11.71     -1.45   10.26  KNaCO3:6H2O
  Lansfordite      -1.66      3.18    4.84  MgCO3:5H2O
  Larnite         -13.69     23.44   37.13  Ca2SiO4
  Leonite         -15.59    -19.71   -4.11  K2Mg(SO4)2:4H2O
  Lime            -17.96     13.51   31.47  CaO
  Magnesite         1.16      3.18    2.02  MgCO3
  Mercallite      -15.61    -17.05   -1.44  KHSO4
  Merwinite       -18.20     47.76   65.96  MgCa3(SiO4)2
  Mg              -84.87     33.41  118.28  Mg
  Mg(g)          -103.76     33.41  137.17  Mg
  Mg1.25SO4(OH)0.5:0.5H2O  -7.76     -3.13    4.63  Mg1.25SO4(OH)0.5:0.5H2O
  Mg1.5SO4(OH)     -8.02      0.47    8.48  Mg1.5SO4(OH)
  MgCl2:2H2O      -21.34     -9.14   12.20  MgCl2:2H2O
  MgCl2:4H2O      -16.18     -9.14    7.04  MgCl2:4H2O
  MgCl2:H2O       -24.52     -9.14   15.38  MgCl2:H2O
  MgOHCl          -12.58      2.63   15.21  MgOHCl
  MgSO4           -11.03     -6.73    4.30  MgSO4
  Mirabilite       -9.06     -9.75   -0.68  Na2SO4:10H2O
  Misenite       -104.21   -115.29  -11.08  K8H6(SO4)7
  Monohydrocalcite  -0.27      2.29    2.56  CaCO3:H2O
  Monticellite     -4.09     24.33   28.42  CaMgSiO4
  Na              -50.02     15.20   65.21  Na
  Na(g)           -62.89     15.20   78.09  Na
  Na2CO3          -10.77      0.16   10.93  Na2CO3
  Na2CO3:7H2O      -9.95      0.16   10.11  Na2CO3:7H2O
  Na2O            -54.04     11.38   65.42  Na2O
  Na2SiO3         -13.93      7.80   21.73  Na2SiO3
  Na3H(SO4)2      -24.30    -25.19   -0.89  Na3H(SO4)2
  Na4Ca(SO4)3:2H2O -21.22    -27.12   -5.89  Na4Ca(SO4)3:2H2O
  Na4SiO4         -49.56     19.18   68.74  Na4SiO4
  Na6Si2O7        -71.87     26.98   98.85  Na6Si2O7
  Nahcolite        -5.48     -5.53   -0.05  NaHCO3
  Natron           -9.72      0.16    9.88  Na2CO3:10H2O
  Natrosilite     -13.55      4.22   17.77  Na2Si2O5
  Nesquehonite     -1.87      3.18    5.05  MgCO3:3H2O
  O2(g)           -35.06    -38.02   -2.96  O2
  Okenite          -3.86      6.34   10.20  CaSi2O4(OH)2:H2O
  Oxychloride-Mg   -8.80     17.03   25.83  Mg2Cl(OH)3:4H2O
  Pentahydrite     -5.34     -6.73   -1.39  MgSO4:5H2O
  Periclase        -6.07     14.40   20.47  MgO
  Picromerite     -15.27    -19.71   -4.44  K2Mg(SO4)2:6H2O
  Pirssonite       -8.87      2.46   11.32  Na2Ca(CO3)2:2H2O
  Polyhalite      -20.63    -34.94  -14.31  K2MgCa2(SO4)4:2H2O
  Portlandite      -8.31     13.51   21.82  Ca(OH)2
  Pseudowollastonite  -3.58      9.93   13.51  CaSiO3
  Quartz            0.26     -3.58   -3.84  SiO2
  Rankinite       -16.74     33.36   50.10  Ca3Si2O7
  Sepiolite         6.77     36.10   29.32  Mg4Si6O15(OH)2:6H2O
  Si             -109.49     34.43  143.93  Si
  Si(g)          -178.02     34.43  212.46  Si
  SiO2(am)         -0.95     -3.58   -2.63  SiO2
  Starkeyite       -5.73     -6.73   -1.00  MgSO4:4H2O
  Sylvite          -8.61     -7.69    0.92  KCl
  Syngenite       -12.99    -20.59   -7.60  K2Ca(SO4)2:H2O
  Tachyhydrite    -45.45    -28.31   17.14  Mg2CaCl6:12H2O
  Talc              8.73     28.87   20.14  Mg3Si4O10(OH)2
  Thenardite       -9.37     -9.75   -0.38  Na2SO4
  Thermonatrite   -10.61      0.16   10.78  Na2CO3:H2O
  Tobermorite-11A -17.70     46.05   63.75  Ca5Si6H11O22.5
  Tobermorite-14A -16.24     46.05   62.29  Ca5Si6H21O27.5
  Tobermorite-9A  -20.91     46.05   66.97  Ca5Si6H6O20
  Tremolite        11.74     70.35   58.61  Ca2Mg5Si8O22(OH)2
  Tridymite         0.08     -3.58   -3.66  SiO2
  Trona-K         -20.18     -8.59   11.59  K2NaH(CO3)2:2H2O
  Wollastonite     -3.36      9.93   13.29  CaSiO3
  Xonotlite       -29.38     59.56   88.94  Ca6Si6O17(OH)2

**For a gas, SI = log10(fugacity). Fugacity = pressure * phi / 1 atm.
  For ideal gases, phi = 1.

------------------
End of simulation.
------------------

------------------------------------
Reading input data for simulation 2.
------------------------------------

----------------------------------
End of Run after 0.073525 Seconds.
----------------------------------

